LAMMPS (29 Oct 2020)
# REAX potential for CHONS systems

units		real
atom_style	charge
dimension       3

read_data       geom.data
Reading data file ...
  orthogonal box = (0.0000000 0.0000000 0.0000000) to (10.990000 60.445000 60.445000)
  reading atoms ...
  877 atoms

pair_style	reax/c lmp_control safezone 2.0 mincap 100
pair_coeff	* *  ffield.ff C H N O Si

neighbor	2 bin
neigh_modify	every 10 delay 0 check no

dump            mypos all xyz 10 pos.out

# NVE anneal
fix             1 all nve
fix             2 all qeq/reax 1 0.0 10.0 1e-6 param.qeq
fix             3 all temp/berendsen 273.0 303.0 0.25
thermo          1
thermo_style    custom step epair etotal temp press
timestep        0.25
run             2000
  update every 10 steps, delay 0 steps, check no
Step E_pair TotEng Temp Press
0   -65755.155   -65755.155            0   -270571.65
Averages over the last 1001 of 2001 rows, steps 1000 to 2000:
E_pair TotEng Temp Press
-60288 -59516.4 295.5 -131028
Loop time of 108.265 on 32 procs for 2000 steps with 877 atoms

unfix           1
unfix           2
unfix           3

# NVE constant
fix             1 all nve
fix             2 all qeq/reax 1 0.0 10.0 1e-6 param.qeq
fix             3 all temp/berendsen 303.0 303.0 0.25
thermo          1
thermo_style    custom step epair etotal temp press
timestep        0.25
run             500
  update every 10 steps, delay 0 steps, check no
Step E_pair TotEng Temp Press
2000   -60219.277   -59428.087          303   -129677.14
Loop time of 19.679 on 32 procs for 500 steps with 877 atoms

unfix           1
unfix           2
unfix           3

# NVE freeze
fix             1 all nve
fix             2 all qeq/reax 1 0.0 10.0 1e-6 param.qeq
fix             3 all temp/berendsen 303.0 273.0 0.25
thermo          1
thermo_style    custom step epair etotal temp press
timestep        0.25
run             2000
  update every 10 steps, delay 0 steps, check no
Step E_pair TotEng Temp Press
2500   -60170.457   -59379.267          303   -128202.35
Averages over the last 1001 of 2001 rows, steps 3500 to 4500:
E_pair TotEng Temp Press
-60199.6 -59467.2 280.5 -130166
Loop time of 80.487 on 32 procs for 2000 steps with 877 atoms

unfix           1
unfix           2
unfix           3

# NVE stabilization
 fix             1 all nve
 fix             2 all qeq/reax 1 0.0 10.0 1e-6 param.qeq
 fix             3 all temp/berendsen 273.0 273.0 0.25
 thermo          1
 thermo_style    custom step epair etotal temp press
 timestep        0.25
 run             100
  update every 10 steps, delay 0 steps, check no
Step E_pair TotEng Temp Press
4500   -60150.307   -59437.452          273    -130068.5
Loop time of 3.34191 on 32 procs for 100 steps with 877 atoms

 unfix           1
 unfix           2
 unfix           3

Please see the log.cite file for references relevant to this simulation
